Circuit: * C:\Users\alexl\OneDrive\Desktop\ECE445\MPPT-ECE445\LTSpiceSim\boost_conv.asc

Direct Newton iteration for .op point succeeded.

Date: Thu Mar 28 19:43:50 2024
Total elapsed time: 0.635 seconds.

tnom = 27
temp = 27
method = modified trap
totiter = 66526
traniter = 66520
tranpoints = 16984
accept = 12753
rejected = 4231
matrix size = 13
fillins = 1
solver = Normal
Matrix Compiler1: 540 bytes object code size  0.2/0.1/[0.1]
Matrix Compiler2: off  [0.1]/2.6/0.1

