Circuit: * C:\Users\alexl\OneDrive\Desktop\ECE445\boost_conv.asc

Direct Newton iteration for .op point succeeded.

Date: Thu Feb 15 14:13:12 2024
Total elapsed time: 5.869 seconds.

tnom = 27
temp = 27
method = modified trap
totiter = 1727974
traniter = 1727968
tranpoints = 458432
accept = 361029
rejected = 97403
matrix size = 11
fillins = 1
solver = Normal
Matrix Compiler1: 494 bytes object code size  0.2/0.2/[0.1]
Matrix Compiler2: off  [0.1]/0.2/0.2

