Circuit: * C:\Users\alexl\OneDrive\Desktop\ECE445\MPPT-ECE445\LTSpiceSim\boost_conv.asc

Direct Newton iteration for .op point succeeded.

Date: Wed Feb 21 20:01:30 2024
Total elapsed time: 9.632 seconds.

tnom = 27
temp = 27
method = modified trap
totiter = 1457940
traniter = 1457935
tranpoints = 400563
accept = 325751
rejected = 74812
matrix size = 13
fillins = 1
solver = Normal
Matrix Compiler1: 540 bytes object code size  0.1/0.1/[0.0]
Matrix Compiler2: 925 bytes object code size  0.1/0.1/[0.1]

