Circuit: * C:\Users\alexl\OneDrive\Desktop\ECE445\MPPT-ECE445\LTSpiceSim\boost_conv.asc

Direct Newton iteration for .op point succeeded.
Heightened Def Con from 0.00468423 to 0.00468423

Date: Wed Feb 21 20:42:46 2024
Total elapsed time: 5.588 seconds.

tnom = 27
temp = 27
method = modified trap
totiter = 691368
traniter = 691363
tranpoints = 190833
accept = 154806
rejected = 36028
matrix size = 13
fillins = 1
solver = Normal
Matrix Compiler1:      32 opcodes  0.1/[0.1]/0.1
Matrix Compiler2: 925 bytes object code size  0.1/0.1/[0.1]

